Version 4
SHEET 1 964 680
WIRE 192 -352 160 -352
WIRE 432 -304 272 -304
WIRE 272 -288 272 -304
WIRE 80 -272 32 -272
WIRE 192 -272 192 -352
WIRE 192 -272 160 -272
WIRE 208 -272 192 -272
WIRE 320 -256 272 -256
WIRE 336 -256 320 -256
WIRE 432 -256 432 -304
WIRE 432 -256 416 -256
WIRE 464 -256 432 -256
WIRE 320 -176 320 -256
WIRE 352 -176 320 -176
WIRE -240 -112 -240 -160
WIRE 256 -64 224 -64
WIRE -336 -48 -336 -96
WIRE 224 -32 224 -64
WIRE 224 -32 160 -32
WIRE 272 -32 224 -32
WIRE 160 0 160 -32
WIRE 272 0 272 -32
WIRE 160 112 160 80
WIRE 224 112 160 112
WIRE 272 112 272 80
WIRE 272 112 224 112
WIRE 224 144 224 112
WIRE 224 144 144 144
WIRE 224 160 224 144
WIRE 224 256 224 240
FLAG -336 32 0
FLAG -192 -224 0
FLAG -192 -304 5V
FLAG 32 -272 5V
FLAG -336 -96 3.3_sig
FLAG 160 -352 out_5
FLAG -320 -224 0
FLAG -320 -304 3.3V
FLAG 464 -256 3.3V
FLAG 224 256 0
FLAG 256 -64 5_sig
FLAG 144 144 out
FLAG -240 -32 0
FLAG -240 -160 5_sig
FLAG 352 -176 3.3_sig
SYMBOL AutoGenerated\\BSS138_ZTX 240 -272 R0
SYMATTR InstName U1
SYMBOL voltage -336 -64 R0
WINDOW 123 0 0 Left 0
WINDOW 39 0 0 Left 0
SYMATTR InstName V1
SYMATTR Value PULSE(0 3.3 0 0 0 0.2 0.4)
SYMBOL voltage -192 -320 R0
WINDOW 123 0 0 Left 0
WINDOW 39 0 0 Left 0
SYMATTR InstName V2
SYMATTR Value 5
SYMBOL res 176 -288 R90
WINDOW 0 0 56 VBottom 2
WINDOW 3 32 56 VTop 2
SYMATTR InstName R1
SYMATTR Value 10k
SYMBOL res 432 -272 R90
WINDOW 0 0 56 VBottom 2
WINDOW 3 32 56 VTop 2
SYMATTR InstName R2
SYMATTR Value 10k
SYMBOL voltage -320 -320 R0
WINDOW 123 0 0 Left 0
WINDOW 39 0 0 Left 0
SYMATTR InstName V3
SYMATTR Value 3.3
SYMBOL res 144 -16 R0
SYMATTR InstName R3
SYMATTR Value 1k
SYMBOL res 256 -16 R0
SYMATTR InstName R4
SYMATTR Value 1k
SYMBOL res 208 144 R0
SYMATTR InstName R5
SYMATTR Value 1k
SYMBOL voltage -240 -128 R0
WINDOW 123 0 0 Left 0
WINDOW 39 0 0 Left 0
SYMATTR InstName V4
SYMATTR Value PULSE(0 5 0 0 0 0.2 0.4)
TEXT -384 56 Left 2 !.tran 2
